# simplified version of h2o2.cti that comes with Cantera.
units(length='cm', time='s', quantity='mol', act_energy='cal/mol')

ideal_gas(name = "ohmech",
      elements = " O  H  Ar ",
      species = """ h2  h  o  o2  oh  h2o  ho2  h2o2  ar """,
      reactions = "all",
      initial_state = state(temperature = 300.0,
                            pressure = OneAtm)    )


#-------------------------------------------------------------------------------
# Species data
#-------------------------------------------------------------------------------

species(name='h2',
        atoms='H:2',
        thermo=(NASA([200.00, 1000.00],
                     [ 2.34433112E+00,  7.98052075E-03, -1.94781510E-05,
                       2.01572094E-08, -7.37611761E-12, -9.17935173E+02,
                       6.83010238E-01]),
                NASA([1000.00, 3500.00],
                     [ 3.33727920E+00, -4.94024731E-05,  4.99456778E-07,
                      -1.79566394E-10,  2.00255376E-14, -9.50158922E+02,
                      -3.20502331E+00])),
        note='TPIS78')

species(name='h',
        atoms='H:1',
        thermo=(NASA([200.00, 1000.00],
                     [ 2.50000000E+00,  7.05332819E-13, -1.99591964E-15,
                       2.30081632E-18, -9.27732332E-22,  2.54736599E+04,
                      -4.46682853E-01]),
                NASA([1000.00, 3500.00],
                     [ 2.50000001E+00, -2.30842973E-11,  1.61561948E-14,
                      -4.73515235E-18,  4.98197357E-22,  2.54736599E+04,
                      -4.46682914E-01])),
        note='L7/88')

species(name='o',
        atoms='O:1',
        thermo=(NASA([200.00, 1000.00],
                     [ 3.16826710E+00, -3.27931884E-03,  6.64306396E-06,
                      -6.12806624E-09,  2.11265971E-12,  2.91222592E+04,
                       2.05193346E+00]),
                NASA([1000.00, 3500.00],
                     [ 2.56942078E+00, -8.59741137E-05,  4.19484589E-08,
                      -1.00177799E-11,  1.22833691E-15,  2.92175791E+04,
                       4.78433864E+00])),
        note='L1/90')

species(name='o2',
        atoms='O:2',
        thermo=(NASA([200.00, 1000.00],
                     [ 3.78245636E+00, -2.99673416E-03,  9.84730201E-06,
                      -9.68129509E-09,  3.24372837E-12, -1.06394356E+03,
                       3.65767573E+00]),
                NASA([1000.00, 3500.00],
                     [ 3.28253784E+00,  1.48308754E-03, -7.57966669E-07,
                       2.09470555E-10, -2.16717794E-14, -1.08845772E+03,
                       5.45323129E+00])),
        note='TPIS89')

species(name='oh',
        atoms='H:1 O:1',
        thermo=(NASA([200.00, 1000.00],
                     [ 3.99201543E+00, -2.40131752E-03,  4.61793841E-06,
                      -3.88113333E-09,  1.36411470E-12,  3.61508056E+03,
                      -1.03925458E-01]),
                NASA([1000.00, 3500.00],
                     [ 3.09288767E+00,  5.48429716E-04,  1.26505228E-07,
                      -8.79461556E-11,  1.17412376E-14,  3.85865700E+03,
                       4.47669610E+00])),
        note='RUS78')

species(name='h2o',
        atoms='O:1 H:2',
        thermo=(NASA([200.00, 1000.00],
                     [ 4.19864056E+00, -2.03643410E-03,  6.52040211E-06,
                      -5.48797062E-09,  1.77197817E-12, -3.02937267E+04,
                      -8.49032208E-01]),
                NASA([1000.00, 3500.00],
                     [ 3.03399249E+00,  2.17691804E-03, -1.64072518E-07,
                      -9.70419870E-11,  1.68200992E-14, -3.00042971E+04,
                       4.96677010E+00])),
        note='L8/89')

species(name='ho2',
        atoms='O:2 H:1',
        thermo=(NASA([200.00, 1000.00],
                     [ 4.30179801E+00, -4.74912051E-03,  2.11582891E-05,
                      -2.42763894E-08,  9.29225124E-12,  2.94808040E+02,
                       3.71666245E+00]),
                NASA([1000.00, 3500.00],
                     [ 4.01721090E+00,  2.23982013E-03, -6.33658150E-07,
                       1.14246370E-10, -1.07908535E-14,  1.11856713E+02,
                       3.78510215E+00])),
        note='L5/89')

species(name='h2o2',
        atoms='O:2 H:2',
        thermo=(NASA([200.00, 1000.00],
                     [ 4.27611269E+00, -5.42822417E-04,  1.67335701E-05,
                      -2.15770813E-08,  8.62454363E-12, -1.77025821E+04,
                       3.43505074E+00]),
                NASA([1000.00, 3500.00],
                     [ 4.16500285E+00,  4.90831694E-03, -1.90139225E-06,
                       3.71185986E-10, -2.87908305E-14, -1.78617877E+04,
                       2.91615662E+00])),
        note='L7/88')

species(name='ar',
        atoms='Ar:1',
        thermo=(NASA([300.00, 1000.00],
                     [ 2.50000000E+00,  0.00000000E+00,  0.00000000E+00,
                       0.00000000E+00,  0.00000000E+00, -7.45375000E+02,
                       4.36600000E+00]),
                NASA([1000.00, 5000.00],
                     [ 2.50000000E+00,  0.00000000E+00,  0.00000000E+00,
                       0.00000000E+00,  0.00000000E+00, -7.45375000E+02,
                       4.36600000E+00])),
        note='120186')

#-------------------------------------------------------------------------------
# Reaction data
#-------------------------------------------------------------------------------

# Reaction 1
three_body_reaction('2 o + m <=> o2 + m', [1.200000e+17, -1.0, 0.0],
                    efficiencies='ar:0.83 h2:2.4 h2o:15.4')

# reaction 2
three_body_reaction('o + h + m <=> oh + m', [5.000000e+17, -1.0, 0.0],
                    efficiencies='ar:0.7 h2:2.0 h2o:6.0')

# reaction 3
reaction('o + h2 <=> h + oh', [3.870000e+04, 2.7, 6260.0])

# reaction 4
reaction('o + ho2 <=> oh + o2', [2.000000e+13, 0.0, 0.0])

# reaction 5
reaction('o + h2o2 <=> oh + ho2', [9.630000e+06, 2.0, 4000.0])

# reaction 6
three_body_reaction('h + o2 + m <=> ho2 + m', [2.800000e+18, -0.86, 0.0],
                    efficiencies='ar:0.0 h2o:0.0 o2:0.0')

# reaction 7
reaction('h + 2 o2 <=> ho2 + o2', [2.080000e+19, -1.24, 0.0])

# reaction 8
reaction('h + o2 + h2o <=> ho2 + h2o', [1.126000e+19, -0.76, 0.0])

# reaction 9
reaction('h + o2 + ar <=> ho2 + ar', [7.000000e+17, -0.8, 0.0])

# reaction 10
reaction('h + o2 <=> o + oh', [2.650000e+16, -0.6707, 17041.0])

# reaction 11
three_body_reaction('2 h + m <=> h2 + m', [1.000000e+18, -1.0, 0.0],
                    efficiencies='ar:0.63 h2:0.0 h2o:0.0')

# reaction 12
reaction('2 h + h2 <=> 2 h2', [9.000000e+16, -0.6, 0.0])

# reaction 13
reaction('2 h + h2o <=> h2 + h2o', [6.000000e+19, -1.25, 0.0])

# reaction 14
three_body_reaction('h + oh + m <=> h2o + m', [2.200000e+22, -2.0, 0.0],
                    efficiencies='ar:0.38 h2:0.73 h2o:3.65')

# reaction 15
reaction('h + ho2 <=> o + h2o', [3.970000e+12, 0.0, 671.0])

# reaction 16
reaction('h + ho2 <=> o2 + h2', [4.480000e+13, 0.0, 1068.0])

# reaction 17
reaction('h + ho2 <=> 2 oh', [8.400000e+13, 0.0, 635.0])

# reaction 18
reaction('h + h2o2 <=> ho2 + h2', [1.210000e+07, 2.0, 5200.0])

# reaction 19
reaction('h + h2o2 <=> oh + h2o', [1.000000e+13, 0.0, 3600.0])

# reaction 20
reaction('oh + h2 <=> h + h2o', [2.160000e+08, 1.51, 3430.0])

# reaction 21
falloff_reaction('2 oh (+ m) <=> h2o2 (+ m)',
                 kf=[7.400000e+13, -0.37, 0.0],
                 kf0=[2.300000e+18, -0.9, -1700.0],
                 efficiencies='ar:0.7 h2:2.0 h2o:6.0',
                 falloff=Troe(A=0.7346, T3=94.0, T1=1756.0, T2=5182.0))

# reaction 22
reaction('2 oh <=> o + h2o', [3.570000e+04, 2.4, -2110.0])

# reaction 23
reaction('oh + ho2 <=> o2 + h2o', [1.450000e+13, 0.0, -500.0],
         options='duplicate')

# reaction 24
reaction('oh + h2o2 <=> ho2 + h2o', [2.000000e+12, 0.0, 427.0],
         options='duplicate')

# reaction 25
reaction('oh + h2o2 <=> ho2 + h2o', [1.700000e+18, 0.0, 29410.0],
         options='duplicate')

# reaction 26
reaction('2 ho2 <=> o2 + h2o2', [1.300000e+11, 0.0, -1630.0],
         options='duplicate')

# reaction 27
reaction('2 ho2 <=> o2 + h2o2', [4.200000e+14, 0.0, 12000.0],
         options='duplicate')

# reaction 28
reaction('oh + ho2 <=> o2 + h2o', [5.000000e+15, 0.0, 17330.0],
         options='duplicate')
